Version 4
SHEET 1 880 680
WIRE 528 -64 80 -64
WIRE 80 0 80 -64
WIRE 528 0 528 -64
WIRE 80 128 80 80
WIRE 528 128 528 80
WIRE 528 128 80 128
FLAG 80 128 0
SYMBOL voltage 80 -16 R0
WINDOW 123 0 0 Left 0
WINDOW 39 0 0 Left 0
SYMATTR InstName V1
SYMATTR Value SINE(0 21.213 159.155)
SYMBOL ind 512 -16 R0
SYMATTR InstName L1
SYMATTR Value 1.25m
SYMATTR SpiceLine Rser=5
TEXT 46 152 Left 2 !.tran 200m
