Version 4
SHEET 1 880 680
WIRE -1136 64 -1392 64
WIRE -1136 176 -1136 64
WIRE -1392 224 -1392 64
WIRE -1392 352 -1392 304
WIRE -1136 352 -1136 240
WIRE -1136 352 -1392 352
WIRE -1392 400 -1392 352
FLAG -1392 400 0
SYMBOL voltage -1392 208 R0
WINDOW 123 0 0 Left 0
WINDOW 39 0 0 Left 0
SYMATTR InstName V1
SYMATTR Value SINE(0 21.213 159.155)
SYMBOL cap -1152 176 R0
SYMATTR InstName C1
SYMATTR Value 8.935µ
TEXT -1424 424 Left 2 !.tran 0 200m 0 10u
