Version 4
SHEET 1 880 680
WIRE -1024 16 -1392 16
WIRE -1024 96 -1024 16
WIRE -1024 96 -1088 96
WIRE -944 96 -1024 96
WIRE -1392 224 -1392 16
WIRE -1088 256 -1088 240
WIRE -1024 256 -1088 256
WIRE -944 256 -1024 256
WIRE -1392 352 -1392 304
WIRE -1024 352 -1024 256
WIRE -1024 352 -1392 352
WIRE -1392 400 -1392 352
FLAG -1392 400 0
SYMBOL voltage -1392 208 R0
WINDOW 123 0 0 Left 0
WINDOW 39 0 0 Left 0
SYMATTR InstName V1
SYMATTR Value SINE(0 21.213 3713.248)
SYMBOL res -960 80 R0
SYMATTR InstName R2
SYMATTR Value 5
SYMBOL ind -960 160 R0
SYMATTR InstName L1
SYMATTR Value 1.25m
SYMBOL res -1104 80 R0
SYMATTR InstName R1
SYMATTR Value 11
SYMBOL cap -1104 176 R0
SYMATTR InstName C1
SYMATTR Value 8.935µ
TEXT -1424 424 Left 2 !.tran 0 200m 0 10u
